instances/data_GOC/Phase_0_RTS96/scenario_28/powersystem.raw
 0,  100.000000
rts96_spring_wday.raw / File written by to_psse.gms
5 / 19 / 2015
101, ' 101 ',138,2,1,1,1,1.00,0.00,1.1,0.9,1.1,0.9
102, ' 102 ',138,2,1,1,1,1.00,0.00,1.1,0.9,1.1,0.9
103, ' 103 ',138,1,1,1,1,1.00,0.00,1.1,0.9,1.1,0.9
104, ' 104 ',138,1,1,1,1,1.00,0.00,1.1,0.9,1.1,0.9
105, ' 105 ',138,1,1,1,1,1.00,0.00,1.1,0.9,1.1,0.9
106, ' 106 ',138,1,1,1,1,1.00,0.00,1.1,0.9,1.1,0.9
107, ' 107 ',138,2,1,1,1,1.00,0.00,1.1,0.9,1.1,0.9
108, ' 108 ',138,1,1,1,1,1.00,0.00,1.1,0.9,1.1,0.9
109, ' 109 ',138,1,1,1,1,1.00,0.00,1.1,0.9,1.1,0.9
110, ' 110 ',138,1,1,1,1,1.00,0.00,1.1,0.9,1.1,0.9
111, ' 111 ',230,1,1,1,1,1.00,0.00,1.1,0.9,1.1,0.9
112, ' 112 ',230,1,1,1,1,1.00,0.00,1.1,0.9,1.1,0.9
113, ' 113 ',230,3,1,1,1,1.00,0.00,1.1,0.9,1.1,0.9
114, ' 114 ',230,2,1,1,1,1.00,0.00,1.1,0.9,1.1,0.9
115, ' 115 ',230,2,1,1,1,1.00,0.00,1.1,0.9,1.1,0.9
116, ' 116 ',230,2,1,1,1,1.00,0.00,1.1,0.9,1.1,0.9
117, ' 117 ',230,1,1,1,1,1.00,0.00,1.1,0.9,1.1,0.9
118, ' 118 ',230,2,1,1,1,1.00,0.00,1.1,0.9,1.1,0.9
119, ' 119 ',230,1,1,1,1,1.00,0.00,1.1,0.9,1.1,0.9
120, ' 120 ',230,1,1,1,1,1.00,0.00,1.1,0.9,1.1,0.9
121, ' 121 ',230,2,1,1,1,1.00,0.00,1.1,0.9,1.1,0.9
122, ' 122 ',230,2,1,1,1,1.00,0.00,1.1,0.9,1.1,0.9
123, ' 123 ',230,2,1,1,1,1.00,0.00,1.1,0.9,1.1,0.9
124, ' 124 ',230,1,1,1,1,1.00,0.00,1.1,0.9,1.1,0.9
201, ' 201 ',138,2,1,1,1,1.00,0.00,1.1,0.9,1.1,0.9
202, ' 202 ',138,2,1,1,1,1.00,0.00,1.1,0.9,1.1,0.9
203, ' 203 ',138,1,1,1,1,1.00,0.00,1.1,0.9,1.1,0.9
204, ' 204 ',138,1,1,1,1,1.00,0.00,1.1,0.9,1.1,0.9
205, ' 205 ',138,1,1,1,1,1.00,0.00,1.1,0.9,1.1,0.9
206, ' 206 ',138,1,1,1,1,1.00,0.00,1.1,0.9,1.1,0.9
207, ' 207 ',138,2,1,1,1,1.00,0.00,1.1,0.9,1.1,0.9
208, ' 208 ',138,1,1,1,1,1.00,0.00,1.1,0.9,1.1,0.9
209, ' 209 ',138,1,1,1,1,1.00,0.00,1.1,0.9,1.1,0.9
210, ' 210 ',138,1,1,1,1,1.00,0.00,1.1,0.9,1.1,0.9
211, ' 211 ',230,1,1,1,1,1.00,0.00,1.1,0.9,1.1,0.9
212, ' 212 ',230,1,1,1,1,1.00,0.00,1.1,0.9,1.1,0.9
213, ' 213 ',230,2,1,1,1,1.00,0.00,1.1,0.9,1.1,0.9
214, ' 214 ',230,2,1,1,1,1.00,0.00,1.1,0.9,1.1,0.9
215, ' 215 ',230,2,1,1,1,1.00,0.00,1.1,0.9,1.1,0.9
216, ' 216 ',230,2,1,1,1,1.00,0.00,1.1,0.9,1.1,0.9
217, ' 217 ',230,1,1,1,1,1.00,0.00,1.1,0.9,1.1,0.9
218, ' 218 ',230,2,1,1,1,1.00,0.00,1.1,0.9,1.1,0.9
219, ' 219 ',230,1,1,1,1,1.00,0.00,1.1,0.9,1.1,0.9
220, ' 220 ',230,1,1,1,1,1.00,0.00,1.1,0.9,1.1,0.9
221, ' 221 ',230,2,1,1,1,1.00,0.00,1.1,0.9,1.1,0.9
222, ' 222 ',230,2,1,1,1,1.00,0.00,1.1,0.9,1.1,0.9
223, ' 223 ',230,2,1,1,1,1.00,0.00,1.1,0.9,1.1,0.9
224, ' 224 ',230,1,1,1,1,1.00,0.00,1.1,0.9,1.1,0.9
301, ' 301 ',138,2,1,1,1,1.00,0.00,1.1,0.9,1.1,0.9
302, ' 302 ',138,2,1,1,1,1.00,0.00,1.1,0.9,1.1,0.9
303, ' 303 ',138,1,1,1,1,1.00,0.00,1.1,0.9,1.1,0.9
304, ' 304 ',138,1,1,1,1,1.00,0.00,1.1,0.9,1.1,0.9
305, ' 305 ',138,1,1,1,1,1.00,0.00,1.1,0.9,1.1,0.9
306, ' 306 ',138,1,1,1,1,1.00,0.00,1.1,0.9,1.1,0.9
307, ' 307 ',138,2,1,1,1,1.00,0.00,1.1,0.9,1.1,0.9
308, ' 308 ',138,1,1,1,1,1.00,0.00,1.1,0.9,1.1,0.9
309, ' 309 ',138,1,1,1,1,1.00,0.00,1.1,0.9,1.1,0.9
310, ' 310 ',138,1,1,1,1,1.00,0.00,1.1,0.9,1.1,0.9
311, ' 311 ',230,1,1,1,1,1.00,0.00,1.1,0.9,1.1,0.9
312, ' 312 ',230,1,1,1,1,1.00,0.00,1.1,0.9,1.1,0.9
313, ' 313 ',230,2,1,1,1,1.00,0.00,1.1,0.9,1.1,0.9
314, ' 314 ',230,2,1,1,1,1.00,0.00,1.1,0.9,1.1,0.9
315, ' 315 ',230,2,1,1,1,1.00,0.00,1.1,0.9,1.1,0.9
316, ' 316 ',230,2,1,1,1,1.00,0.00,1.1,0.9,1.1,0.9
317, ' 317 ',230,1,1,1,1,1.00,0.00,1.1,0.9,1.1,0.9
318, ' 318 ',230,2,1,1,1,1.00,0.00,1.1,0.9,1.1,0.9
319, ' 319 ',230,1,1,1,1,1.00,0.00,1.1,0.9,1.1,0.9
320, ' 320 ',230,1,1,1,1,1.00,0.00,1.1,0.9,1.1,0.9
321, ' 321 ',230,2,1,1,1,1.00,0.00,1.1,0.9,1.1,0.9
322, ' 322 ',230,2,1,1,1,1.00,0.00,1.1,0.9,1.1,0.9
323, ' 323 ',230,2,1,1,1,1.00,0.00,1.1,0.9,1.1,0.9
324, ' 324 ',230,1,1,1,1,1.00,0.00,1.1,0.9,1.1,0.9
325, ' 325 ',230,1,1,1,1,1.00,0.00,1.1,0.9,1.1,0.9
0 / END OF BUS DATA, BEGIN LOAD DATA
101, '1 ',1,11,11,77.61589709586427,19.458824563863875,0.0,0.0,0.0,0.0,1,1,0
102, '1 ',1,11,12,71.03815106623861,14.505306235768831,0.0,0.0,0.0,0.0,1,1,0
103, '1 ',1,11,11,149.86651474898682,31.545501789828386,0.0,0.0,0.0,0.0,1,1,0
104, '1 ',1,11,11,51.99976896721674,8.20260863138549,0.0,0.0,0.0,0.0,1,1,0
105, '1 ',1,11,11,37.09133215346164,7.682655146061256,0.0,0.0,0.0,0.0,1,1,0
106, '1 ',1,11,12,113.30781123387963,18.93202343670018,0.0,0.0,0.0,0.0,1,1,0
107, '1 ',1,11,12,83.3935248004971,15.02986217476311,0.0,0.0,0.0,0.0,1,1,0
108, '1 ',1,11,12,94.53339600925008,18.77838586882548,0.0,0.0,0.0,0.0,1,1,0
109, '1 ',1,11,13,150.14371047100636,17.983925705864465,0.0,0.0,0.0,0.0,1,1,0
110, '1 ',1,11,13,107.91016242674503,20.026188650462775,0.0,0.0,0.0,0.0,1,1,0
111, '1 ',1,11,13,0.0,0.0,0.0,0.0,0.0,0.0,1,1,0
112, '1 ',1,11,13,0.0,0.0,0.0,0.0,0.0,0.0,1,1,0
113, '1 ',1,12,14,172.47550773962985,39.72404684152762,0.0,0.0,0.0,0.0,1,1,0
114, '1 ',1,12,16,162.82922573864337,19.577371600175695,0.0,0.0,0.0,0.0,1,1,0
115, '1 ',1,12,16,257.4802120219591,40.648674073272936,0.0,0.0,0.0,0.0,1,1,0
116, '1 ',1,12,16,82.4648121486185,10.404543558156117,0.0,0.0,0.0,0.0,1,1,0
117, '1 ',1,12,17,0.0,0.0,0.0,0.0,0.0,0.0,1,1,0
118, '1 ',1,12,17,227.86311403610355,35.353231122913954,0.0,0.0,0.0,0.0,1,1,0
119, '1 ',1,12,15,160.47889027006312,18.226956899169085,0.0,0.0,0.0,0.0,1,1,0
120, '1 ',1,12,15,100.00514466651678,15.367872492595017,0.0,0.0,0.0,0.0,1,1,0
121, '1 ',1,12,17,0.0,0.0,0.0,0.0,0.0,0.0,1,1,0
122, '1 ',1,12,17,0.0,0.0,0.0,0.0,0.0,0.0,1,1,0
123, '1 ',1,12,15,0.0,0.0,0.0,0.0,0.0,0.0,1,1,0
124, '1 ',1,12,16,0.0,0.0,0.0,0.0,0.0,0.0,1,1,0
201, '1 ',1,21,21,62.79442198370061,13.122053694897518,0.0,0.0,0.0,0.0,1,1,0
202, '1 ',1,21,22,58.06781874206267,15.511018866277299,0.0,0.0,0.0,0.0,1,1,0
203, '1 ',1,21,21,110.65121010134182,22.709989922576675,0.0,0.0,0.0,0.0,1,1,0
204, '1 ',1,21,21,45.934270829958464,8.15232689485629,0.0,0.0,0.0,0.0,1,1,0
205, '1 ',1,21,21,50.19814923868748,12.490994455425628,0.0,0.0,0.0,0.0,1,1,0
206, '1 ',1,21,22,72.43592328302488,15.45454861498922,0.0,0.0,0.0,0.0,1,1,0
207, '1 ',1,21,22,86.24666552760755,18.349571498312287,0.0,0.0,0.0,0.0,1,1,0
208, '1 ',1,21,22,86.82447030417505,22.554619411798193,0.0,0.0,0.0,0.0,1,1,0
209, '1 ',1,21,23,156.2554713981785,26.97782992122229,0.0,0.0,0.0,0.0,1,1,0
210, '1 ',1,21,23,133.70233326039207,25.05567524036206,0.0,0.0,0.0,0.0,1,1,0
211, '1 ',1,21,23,0.0,0.0,0.0,0.0,0.0,0.0,1,1,0
212, '1 ',1,21,23,0.0,0.0,0.0,0.0,0.0,0.0,1,1,0
213, '1 ',1,22,24,236.04841745500826,27.1336946976277,0.0,0.0,0.0,0.0,1,1,0
214, '1 ',1,22,26,124.08665692966088,25.451935145176343,0.0,0.0,0.0,0.0,1,1,0
215, '1 ',1,22,26,250.172072309898,43.18174213148653,0.0,0.0,0.0,0.0,1,1,0
216, '1 ',1,22,26,78.97204574579838,15.263652915833518,0.0,0.0,0.0,0.0,1,1,0
217, '1 ',1,22,27,0.0,0.0,0.0,0.0,0.0,0.0,1,1,0
218, '1 ',1,22,27,265.58743905532936,44.94538121527713,0.0,0.0,0.0,0.0,1,1,0
219, '1 ',1,22,25,141.02957626287932,24.61996359476172,0.0,0.0,0.0,0.0,1,1,0
220, '1 ',1,22,25,80.01655027241706,16.19282211681325,0.0,0.0,0.0,0.0,1,1,0
221, '1 ',1,22,27,0.0,0.0,0.0,0.0,0.0,0.0,1,1,0
222, '1 ',1,22,27,0.0,0.0,0.0,0.0,0.0,0.0,1,1,0
223, '1 ',1,22,25,0.0,0.0,0.0,0.0,0.0,0.0,1,1,0
224, '1 ',1,22,26,0.0,0.0,0.0,0.0,0.0,0.0,1,1,0
301, '1 ',1,31,31,64.30339156312309,13.987002102099918,0.0,0.0,0.0,0.0,1,1,0
302, '1 ',1,31,32,51.21633601290733,17.28350740059279,0.0,0.0,0.0,0.0,1,1,0
303, '1 ',1,31,31,148.8919863975076,18.66830947728627,0.0,0.0,0.0,0.0,1,1,0
304, '1 ',1,31,31,51.21721884257532,9.045873754250351,0.0,0.0,0.0,0.0,1,1,0
305, '1 ',1,31,31,44.246272101142026,11.498863131801132,0.0,0.0,0.0,0.0,1,1,0
306, '1 ',1,31,32,80.856826995112,15.126008590731024,0.0,0.0,0.0,0.0,1,1,0
307, '1 ',1,31,32,102.7636094307527,21.39690617942833,0.0,0.0,0.0,0.0,1,1,0
308, '1 ',1,31,32,107.89099547725758,30.061713544127997,0.0,0.0,0.0,0.0,1,1,0
309, '1 ',1,31,33,99.12326003604917,31.82620932397843,0.0,0.0,0.0,0.0,1,1,0
310, '1 ',1,31,33,104.320779996376,33.3560217643138,0.0,0.0,0.0,0.0,1,1,0
311, '1 ',1,31,33,0.0,0.0,0.0,0.0,0.0,0.0,1,1,0
312, '1 ',1,31,33,0.0,0.0,0.0,0.0,0.0,0.0,1,1,0
313, '1 ',1,32,34,178.29429929209945,36.65017136396588,0.0,0.0,0.0,0.0,1,1,0
314, '1 ',1,32,36,151.18101141533498,25.29070526458472,0.0,0.0,0.0,0.0,1,1,0
315, '1 ',1,32,36,183.60231800730185,31.414188816440102,0.0,0.0,0.0,0.0,1,1,0
316, '1 ',1,32,36,80.39447916917503,10.178515555467456,0.0,0.0,0.0,0.0,1,1,0
317, '1 ',1,32,37,0.0,0.0,0.0,0.0,0.0,0.0,1,1,0
318, '1 ',1,32,37,236.0177407764151,34.916490664785165,0.0,0.0,0.0,0.0,1,1,0
319, '1 ',1,32,35,106.59820907017483,22.330170145124523,0.0,0.0,0.0,0.0,1,1,0
320, '1 ',1,32,35,97.08491066960693,18.379762299724202,0.0,0.0,0.0,0.0,1,1,0
321, '1 ',1,32,37,0.0,0.0,0.0,0.0,0.0,0.0,1,1,0
322, '1 ',1,32,37,0.0,0.0,0.0,0.0,0.0,0.0,1,1,0
323, '1 ',1,32,35,0.0,0.0,0.0,0.0,0.0,0.0,1,1,0
324, '1 ',1,32,36,0.0,0.0,0.0,0.0,0.0,0.0,1,1,0
325, '1 ',1,32,35,0.0,0.0,0.0,0.0,0.0,0.0,1,1,0
0 / END OF LOAD DATA, BEGIN FIXED SHUNT DATA
0 / END OF FIXED SHUNT DATA, BEGIN GENERATOR DATA
101,1,10,0,12.890477176290007,0.014877732843162406,1.035,0,24,0,1,0,0,1,1,100,14.081612227484584,10.41465290502645,1,1,0,1
101,2,10,0,11.52261914825067,4.451805111486466,1.035,0,24,0,1,0,0,1,1,100,20.766287823207676,16.305033310959118,1,1,0,1
101,3,76,14.1,36.27248482452706,-23.90944435750133,1.035,0,89,0,1,0,0,1,1,100,92.55963423978538,25.595973722897483,1,1,0,1
101,4,76,14.1,35.357553221751004,-20.324452552711584,1.035,0,89,0,1,0,0,1,1,100,65.99854785967618,0.9708473639562669,1,1,0,1
102,5,10,0,7.540249948855489,-2.858683695551009,1.035,0,24,0,1,0,0,1,1,100,20.207451418973505,16.654856513245033,1,1,0,1
102,6,10,0,9.246984604746103,-1.6606318526901305,1.035,0,24,0,1,0,0,1,1,100,16.976607751101255,12.381090186759831,1,1,0,1
102,7,76,7,31.305296162143353,-38.74543320853263,1.035,0,89,0,1,0,0,1,1,100,98.71666188836097,33.98492760196328,1,1,0,1
102,8,76,7,21.31279338989407,-38.91917154914699,1.035,0,89,0,1,0,0,1,1,100,94.6416101422161,24.3022275093943,1,1,0,1
107,9,80,17.2,49.93428425397724,-13.568532879464328,1.025,0,118,0,1,0,0,1,1,100,80.63233583699912,39.37109085368019,1,1,0,1
107,10,80,17.2,69.1056558508426,8.615612693130963,1.025,0,118,0,1,0,0,1,1,100,127.03103122767061,67.61523175984621,1,1,0,1
107,11,80,17.2,49.33303478267044,-18.855649452656507,1.025,0,118,0,1,0,0,1,1,100,84.65475470293313,54.69159229950359,1,1,0,1
113,12,95.1,40.7,61.224361032247536,-15.821329347789295,1.02,0,232,0,1,0,0,1,1,100,225.92280656737273,83.20752476123857,1,1,0,1
113,13,95.1,40.7,88.31210384517908,20.15306720137596,1.02,0,232,0,1,0,0,1,1,100,229.95850167111496,114.10536441329401,1,1,0,1
113,14,95.1,40.7,65.17136994376779,-0.22470751404762268,1.02,0,232,0,1,0,0,1,1,100,192.75527622299268,62.73110682774566,1,1,0,1
114,15,0,13.7,227.6246895082295,27.454755560029326,0.98,0,100,0,1,0,0,1,1,100,0.0,0.0,1,1,0,1
115,16,12,0,4.9846840769983825,-0.871333403326572,1.014,0,14,0,1,0,0,1,1,100,10.21085553187877,0.9903773357346672,1,1,0,1
115,17,12,0,5.171602912433446,0.35914879711344927,1.014,0,14,0,1,0,0,1,1,100,10.432177167199551,0.6832894533258008,1,1,0,1
115,18,12,0,5.983436904195695,-1.4551324722357108,1.014,0,14,0,1,0,0,1,1,100,14.245185984671117,4.254998577833177,1,1,0,1
115,19,12,0,4.597274338826537,-1.1252076733857388,1.014,0,14,0,1,0,0,1,1,100,14.719052265398204,4.621482029221953,1,1,0,1
115,20,12,0,4.9636421648785465,-2.4048941097222283,1.014,0,14,0,1,0,0,1,1,100,13.898715586401522,5.22977561775595,1,1,0,1
115,21,155,0.05,95.55504445359111,-71.3127548834309,1.014,0,182,0,1,0,0,1,1,100,198.55109656229615,78.39270661404589,1,1,0,1
116,22,155,25.22,84.93271547183394,-55.68524139467627,1.017,0,182,0,1,0,0,1,1,100,156.7375560272485,73.52229058776284,1,1,0,1
118,23,400,137.4,169.43377089686692,-64.86229454400018,1.05,0,471,0,1,0,0,1,1,100,437.1231586299837,106.28772917203611,1,1,0,1
121,24,400,108.2,228.52381103672087,0.9007319598458707,1.05,0,471,0,1,0,0,1,1,100,326.1636048555374,200.78789567493413,1,1,0,1
122,25,50,-4.96,12.918844301253557,-18.917227091826497,1.05,0,53,0,1,0,0,1,1,100,46.52986900182441,23.523256195371278,1,1,0,1
122,26,50,-4.96,17.22895393446088,-8.880515767540782,1.05,0,53,0,1,0,0,1,1,100,35.909878632519394,18.12031156131283,1,1,0,1
122,27,50,-4.96,14.211529967188834,-17.40229264283553,1.05,0,53,0,1,0,0,1,1,100,41.0798097634688,0.7388689208720276,1,1,0,1
122,28,50,-4.96,19.892019129544497,-3.7018773498944952,1.05,0,53,0,1,0,0,1,1,100,36.8150790524669,10.678330955118492,1,1,0,1
122,29,50,-4.96,12.877603473514318,-17.116229319572447,1.05,0,53,0,1,0,0,1,1,100,35.342765161767595,32.83883611393648,1,1,0,1
122,30,50,-4.96,17.391542390733957,-7.700477891601622,1.05,0,53,0,1,0,0,1,1,100,61.368877151981,17.933575692877056,1,1,0,1
123,31,155,31.79,70.60563096404076,-37.130193468183265,1.05,0,182,0,1,0,0,1,1,100,186.35298373666595,89.32207892552255,1,1,0,1
123,32,155,31.79,94.3561457619071,-49.54214044753462,1.05,0,182,0,1,0,0,1,1,100,158.92115512187593,55.234518502478025,1,1,0,1
123,33,350,71.78,126.62215789547189,-63.904048964614034,1.05,0,412,0,1,0,0,1,1,100,347.1936661959626,173.06651491252705,1,1,0,1
201,34,10,0,8.91215712763369,0.14639503369107842,1.035,0,24,0,1,0,0,1,1,100,18.438583026640117,14.265082864295692,1,1,0,1
201,35,10,0,10.415470654610544,-0.2817753846757114,1.035,0,24,0,1,0,0,1,1,100,14.712695381604135,10.421405092552305,1,1,0,1
201,36,76,14.1,24.743010547477752,-27.817444947082542,1.035,0,89,0,1,0,0,1,1,100,93.38527908474207,39.25428349465132,1,1,0,1
201,37,76,14.1,23.230793736409396,-43.39723345916718,1.035,0,89,0,1,0,0,1,1,100,92.5765389520675,40.937937272414565,1,1,0,1
202,38,10,0,12.81977446237579,3.1500617852434516,1.035,0,24,0,1,0,0,1,1,100,22.468002368696034,17.101117652123797,1,1,0,1
202,39,10,0,7.532070368062705,-0.6530395257286727,1.035,0,24,0,1,0,0,1,1,100,16.723736374638975,13.20769092365168,1,1,0,1
202,40,76,7,35.656892525497824,-18.800702397944406,1.035,0,89,0,1,0,0,1,1,100,74.127998800762,3.639304607845858,1,1,0,1
202,41,76,7,23.86729462165385,-37.97227730485612,1.035,0,89,0,1,0,0,1,1,100,91.36347440648824,18.237819455452254,1,1,0,1
207,42,80,17.2,69.28646499384195,18.872008480131626,1.025,0,118,0,1,0,0,1,1,100,120.07573068607597,64.84760626568459,1,1,0,1
207,43,80,17.2,48.47837232425809,-21.789111270569265,1.025,0,118,0,1,0,0,1,1,100,105.77149441931397,48.089061096543446,1,1,0,1
207,44,80,17.2,71.69301107525826,25.923445816151798,1.025,0,118,0,1,0,0,1,1,100,113.70429113972934,47.58174734655769,1,1,0,1
213,45,95.1,40.7,90.9871896058321,19.137060720473528,1.02,0,232,0,1,0,0,1,1,100,215.81202410017139,89.64871927161232,1,1,0,1
213,46,95.1,40.7,86.28387746959925,-6.72811708599329,1.02,0,232,0,1,0,0,1,1,100,255.42688577915544,137.63631385911722,1,1,0,1
213,47,95.1,40.7,84.04051437228918,16.995751831680536,1.02,0,232,0,1,0,0,1,1,100,148.1739674924407,14.83716697775918,1,1,0,1
214,48,0,13.68,161.61592432297763,-95.85670831613245,0.98,0,100,0,1,0,0,1,1,100,0.0,0.0,1,1,0,1
215,49,12,0,7.50327103966847,2.7923960521817204,1.014,0,14,0,1,0,0,1,1,100,13.37652467675507,3.926007501706481,1,1,0,1
215,50,12,0,4.242863215506077,-2.5102133031003184,1.014,0,14,0,1,0,0,1,1,100,12.64115985799581,5.514798065610232,1,1,0,1
215,51,12,0,7.19828023770824,-0.14771797182038426,1.014,0,14,0,1,0,0,1,1,100,12.873648023977877,3.927786169722678,1,1,0,1
215,52,12,0,7.425536992214621,-0.3333396130241457,1.014,0,14,0,1,0,0,1,1,100,9.466434452310203,0.8574210385233147,1,1,0,1
215,53,12,0,5.4402371473610405,-2.213812076859176,1.014,0,14,0,1,0,0,1,1,100,10.591428427398206,0.6327615644037738,1,1,0,1
215,54,155,0.048,72.83619276061654,-42.66134695336223,1.014,0,182,0,1,0,0,1,1,100,118.22630535927601,25.37931742615764,1,1,0,1
216,55,155,25.22,98.26359725371003,-56.01477481145412,1.017,0,182,0,1,0,0,1,1,100,192.8823895584792,102.25568630008492,1,1,0,1
218,56,400,137.4,145.92568591237068,-67.98136611701918,1.05,0,471,0,1,0,0,1,1,100,343.940275516361,24.475811421871185,1,1,0,1
221,57,400,108.2,141.13233258947727,-45.31663611298427,1.05,0,471,0,1,0,0,1,1,100,375.22083865478635,45.03449568990618,1,1,0,1
222,58,50,-4.96,12.052558678388595,-12.790569151006638,1.05,0,53,0,1,0,0,1,1,100,39.33246188797057,0.47777594084728153,1,1,0,1
222,59,50,-4.96,12.080273883789777,-14.789322121161968,1.05,0,53,0,1,0,0,1,1,100,62.82322266604752,14.750705938786275,1,1,0,1
222,60,50,-4.96,19.37666406482458,-4.856810494046659,1.05,0,53,0,1,0,0,1,1,100,36.01333091035485,30.337951614875962,1,1,0,1
222,61,50,-4.96,16.711362727731466,-2.154770099092275,1.05,0,53,0,1,0,0,1,1,100,53.385004613082856,0.3852214990183782,1,1,0,1
222,62,50,-4.96,13.942427358776332,-12.337953296490014,1.05,0,53,0,1,0,0,1,1,100,59.73428613040597,15.689625602681197,1,1,0,1
222,63,50,-4.96,14.771918623894454,-4.214997361693531,1.05,0,53,0,1,0,0,1,1,100,37.42665476165712,3.0398763214615125,1,1,0,1
223,64,155,31.79,74.94673937186599,-62.11058069532737,1.05,0,182,0,1,0,0,1,1,100,172.43023600592278,75.29981053936062,1,1,0,1
223,65,155,31.79,84.7266817651689,-25.706444466486573,1.05,0,182,0,1,0,0,1,1,100,129.4960033968091,7.725860531569921,1,1,0,1
223,66,350,71.78,122.80943359248339,-82.53719739033842,1.05,0,412,0,1,0,0,1,1,100,383.8806408876553,152.8840290275402,1,1,0,1
301,67,10,0,11.415830122772604,1.0060121663846076,1.035,0,24,0,1,0,0,1,1,100,15.95759085379541,11.056538750836626,1,1,0,1
301,68,10,0,11.480915262829512,2.0843903864733875,1.035,0,24,0,1,0,0,1,1,100,15.700880300253628,11.067651169775054,1,1,0,1
301,69,76,14.1,26.33371785096824,-34.557940128725015,1.035,0,89,0,1,0,0,1,1,100,81.25578150488435,15.450681898519392,1,1,0,1
301,70,76,14.1,27.841517977416515,-14.877673890674487,1.035,0,89,0,1,0,0,1,1,100,81.24922968521714,25.20860136806965,1,1,0,1
302,71,10,0,9.195648706983775,-0.8685240251943469,1.035,0,24,0,1,0,0,1,1,100,20.08093035966158,15.275704883048311,1,1,0,1
302,72,10,0,11.572729343548417,0.9144561546854675,1.035,0,24,0,1,0,0,1,1,100,14.086330492980776,9.708317428827286,1,1,0,1
302,73,76,7,36.57860575011,-15.618572882376611,1.035,0,89,0,1,0,0,1,1,100,61.84567482639103,12.971777653731401,1,1,0,1
302,74,76,7,34.31492283800617,-29.522425522794954,1.035,0,89,0,1,0,0,1,1,100,57.67385270949453,56.827357432578054,1,1,0,1
307,75,80,17.2,43.782770371064544,-6.166680718772106,1.025,0,118,0,1,0,0,1,1,100,108.22799550369382,38.845231021987274,1,1,0,1
307,76,80,17.2,43.36891093477606,-16.875813229009516,1.025,0,118,0,1,0,0,1,1,100,96.24909901525824,29.584922569338218,1,1,0,1
307,77,80,17.2,75.06739540770651,18.632349500432625,1.025,0,118,0,1,0,0,1,1,100,123.80827359855175,58.31580237019807,1,1,0,1
313,78,95.1,40.7,100.52447484061122,30.464262653142214,1.02,0,232,0,1,0,0,1,1,100,188.72087926510721,22.660139246245365,1,1,0,1
313,79,95.1,40.7,99.3322179466486,28.14675595611334,1.02,0,232,0,1,0,0,1,1,100,235.56566926445814,111.31425891225925,1,1,0,1
313,80,95.1,40.7,101.01488676294686,23.278702877461924,1.02,0,232,0,1,0,0,1,1,100,141.01325112427583,10.674672049216412,1,1,0,1
314,81,0,13.68,248.76393418759108,8.579488380346447,0.98,0,100,0,1,0,0,1,1,100,0.0,0.0,1,1,0,1
315,82,12,0,7.010852458141745,0.6059301674366004,1.014,0,14,0,1,0,0,1,1,100,12.468662471696733,1.3316159840673194,1,1,0,1
315,83,12,0,7.0497634168714285,0.3883508322760463,1.014,0,14,0,1,0,0,1,1,100,12.51823719944805,2.072987811081113,1,1,0,1
315,84,12,0,4.512923282571137,-3.1079569051042206,1.014,0,14,0,1,0,0,1,1,100,11.83382117394358,6.065212314538965,1,1,0,1
315,85,12,0,5.109383816365153,0.16323895398527455,1.014,0,14,0,1,0,0,1,1,100,14.185484653897582,5.210106209255754,1,1,0,1
315,86,12,0,7.1144686281681055,2.236449749954045,1.014,0,14,0,1,0,0,1,1,100,10.971574357151987,3.6648667851090453,1,1,0,1
315,87,155,0.048,81.17197227478027,-34.889980445150286,1.014,0,182,0,1,0,0,1,1,100,198.72549586417153,77.13946069561644,1,1,0,1
316,88,155,25.22,76.55560225620866,-74.33315883716568,1.017,0,182,0,1,0,0,1,1,100,186.05444135144353,62.71074865561677,1,1,0,1
318,89,400,137.4,197.54265738651156,13.088962316978751,1.05,0,471,0,1,0,0,1,1,100,382.13500430807466,74.82142620254302,1,1,0,1
321,90,400,108.2,255.4942529089749,47.25360281532633,1.05,0,471,0,1,0,0,1,1,100,337.36500803381205,48.46104236319661,1,1,0,1
322,91,50,-4.96,14.0299559392035,-19.60612395843491,1.05,0,53,0,1,0,0,1,1,100,57.68872169312089,17.761259148828678,1,1,0,1
322,92,50,-4.96,11.767906162142753,-13.173264868836851,1.05,0,53,0,1,0,0,1,1,100,51.33185257669538,7.193582227140055,1,1,0,1
322,93,50,-4.96,11.79822582155466,-12.956137273833157,1.05,0,53,0,1,0,0,1,1,100,55.41864735074341,10.50130350748077,1,1,0,1
322,94,50,-4.96,16.98085747733712,-7.559626721870153,1.05,0,53,0,1,0,0,1,1,100,35.18923690775409,23.2895659813728,1,1,0,1
322,95,50,-4.96,12.565995959192513,-11.697145736031235,1.05,0,53,0,1,0,0,1,1,100,64.31012127781287,18.37276042671874,1,1,0,1
322,96,50,-4.96,17.865337471663953,-5.688926882389932,1.05,0,53,0,1,0,0,1,1,100,59.62265889160335,24.354991475120187,1,1,0,1
323,97,155,31.79,66.87722466886044,-73.836371967569,1.05,0,182,0,1,0,0,1,1,100,157.96470208186656,62.217526327911756,1,1,0,1
323,98,155,31.79,59.54567588865757,-96.6983235292137,1.05,0,182,0,1,0,0,1,1,100,176.1457314621657,93.62169040699955,1,1,0,1
323,99,350,71.78,143.94013820914552,-66.09223447041589,1.05,0,412,0,1,0,0,1,1,100,423.98967680986965,155.2690137457102,1,1,0,1
0 / END OF GENERATOR DATA, BEGIN BRANCH DATA
101,102,1,0.003,0.014,0.461,210.0,231.6,240.0,0,0,0,0,1,1,0,1,1
101,103,1,0.055,0.211,0.057,210.0,249.6,264.0,0,0,0,0,1,1,0,1,1
101,105,1,0.022,0.085,0.023,210.0,249.6,264.0,0,0,0,0,1,1,0,1,1
102,104,1,0.033,0.127,0.034,210.0,249.6,264.0,0,0,0,0,1,1,0,1,1
102,106,1,0.05,0.192,0.052,210.0,249.6,264.0,0,0,0,0,1,1,0,1,1
103,109,1,0.031,0.119,0.032,210.0,249.6,264.0,0,0,0,0,1,1,0,1,1
104,109,1,0.027,0.104,0.028,210.0,249.6,264.0,0,0,0,0,1,1,0,1,1
105,110,1,0.023,0.088,0.024,210.0,249.6,264.0,0,0,0,0,1,1,0,1,1
106,110,1,0.014,0.061,2.459,210.0,231.6,240.0,0,0,0,0,1,1,0,1,1
107,108,1,0.016,0.061,0.017,210.0,249.6,264.0,0,0,0,0,1,1,0,1,1
107,203,1,0.042,0.161,0.044,210.0,249.6,264.0,0,0,0,0,1,1,0,1,1
108,109,1,0.043,0.165,0.045,210.0,249.6,264.0,0,0,0,0,1,1,0,1,1
108,110,1,0.043,0.165,0.045,210.0,249.6,264.0,0,0,0,0,1,1,0,1,1
111,113,1,0.006,0.048,0.1,600.0,720.0,750.0,0,0,0,0,1,1,0,1,1
111,114,1,0.005,0.042,0.088,600.0,720.0,750.0,0,0,0,0,1,1,0,1,1
112,113,1,0.006,0.048,0.1,600.0,720.0,750.0,0,0,0,0,1,1,0,1,1
112,123,1,0.012,0.097,0.203,600.0,720.0,750.0,0,0,0,0,1,1,0,1,1
113,123,1,0.011,0.087,0.182,600.0,720.0,750.0,0,0,0,0,1,1,0,1,1
113,215,1,0.01,0.075,0.158,600.0,720.0,750.0,0,0,0,0,1,1,0,1,1
114,116,1,0.005,0.059,0.082,600.0,720.0,750.0,0,0,0,0,1,1,0,1,1
115,116,1,0.002,0.017,0.036,600.0,720.0,750.0,0,0,0,0,1,1,0,1,1
115,121,1,0.006,0.049,0.103,600.0,720.0,750.0,0,0,0,0,1,1,0,1,1
115,121,2,0.006,0.049,0.103,600.0,720.0,750.0,0,0,0,0,1,1,0,1,1
115,124,1,0.007,0.052,0.109,600.0,720.0,750.0,0,0,0,0,1,1,0,1,1
116,117,1,0.003,0.026,0.055,600.0,720.0,750.0,0,0,0,0,1,1,0,1,1
116,119,1,0.003,0.023,0.049,600.0,720.0,750.0,0,0,0,0,1,1,0,1,1
117,118,1,0.002,0.014,0.03,600.0,720.0,750.0,0,0,0,0,1,1,0,1,1
117,122,1,0.014,0.105,0.221,600.0,720.0,750.0,0,0,0,0,1,1,0,1,1
118,121,1,0.003,0.026,0.055,600.0,720.0,750.0,0,0,0,0,1,1,0,1,1
118,121,2,0.003,0.026,0.055,600.0,720.0,750.0,0,0,0,0,1,1,0,1,1
119,120,1,0.005,0.04,0.083,600.0,720.0,750.0,0,0,0,0,1,1,0,1,1
119,120,2,0.005,0.04,0.083,600.0,720.0,750.0,0,0,0,0,1,1,0,1,1
120,123,1,0.003,0.022,0.046,600.0,720.0,750.0,0,0,0,0,1,1,0,1,1
120,123,2,0.003,0.022,0.046,600.0,720.0,750.0,0,0,0,0,1,1,0,1,1
121,122,1,0.009,0.068,0.142,600.0,720.0,750.0,0,0,0,0,1,1,0,1,1
123,217,1,0.01,0.074,0.155,600.0,720.0,750.0,0,0,0,0,1,1,0,1,1
201,202,1,0.003,0.014,0.461,210.0,231.6,240.0,0,0,0,0,1,1,0,1,1
201,203,1,0.055,0.211,0.057,210.0,249.6,264.0,0,0,0,0,1,1,0,1,1
201,205,1,0.022,0.085,0.023,210.0,249.6,264.0,0,0,0,0,1,1,0,1,1
202,204,1,0.033,0.127,0.034,210.0,249.6,264.0,0,0,0,0,1,1,0,1,1
202,206,1,0.05,0.192,0.052,210.0,249.6,264.0,0,0,0,0,1,1,0,1,1
203,209,1,0.031,0.119,0.032,210.0,249.6,264.0,0,0,0,0,1,1,0,1,1
204,209,1,0.027,0.104,0.028,210.0,249.6,264.0,0,0,0,0,1,1,0,1,1
205,210,1,0.023,0.088,0.024,210.0,249.6,264.0,0,0,0,0,1,1,0,1,1
206,210,1,0.014,0.061,2.459,210.0,231.6,240.0,0,0,0,0,1,1,0,1,1
207,208,1,0.016,0.061,0.017,210.0,249.6,264.0,0,0,0,0,1,1,0,1,1
208,209,1,0.043,0.165,0.045,210.0,249.6,264.0,0,0,0,0,1,1,0,1,1
208,210,1,0.043,0.165,0.045,210.0,249.6,264.0,0,0,0,0,1,1,0,1,1
211,213,1,0.006,0.048,0.1,600.0,720.0,750.0,0,0,0,0,1,1,0,1,1
211,214,1,0.005,0.042,0.088,600.0,720.0,750.0,0,0,0,0,1,1,0,1,1
212,213,1,0.006,0.048,0.1,600.0,720.0,750.0,0,0,0,0,1,1,0,1,1
212,223,1,0.012,0.097,0.203,600.0,720.0,750.0,0,0,0,0,1,1,0,1,1
213,223,1,0.011,0.087,0.182,600.0,720.0,750.0,0,0,0,0,1,1,0,1,1
214,216,1,0.005,0.059,0.082,600.0,720.0,750.0,0,0,0,0,1,1,0,1,1
215,216,1,0.002,0.017,0.036,600.0,720.0,750.0,0,0,0,0,1,1,0,1,1
215,221,1,0.006,0.049,0.103,600.0,720.0,750.0,0,0,0,0,1,1,0,1,1
215,221,2,0.006,0.049,0.103,600.0,720.0,750.0,0,0,0,0,1,1,0,1,1
215,224,1,0.007,0.052,0.109,600.0,720.0,750.0,0,0,0,0,1,1,0,1,1
216,217,1,0.003,0.026,0.055,600.0,720.0,750.0,0,0,0,0,1,1,0,1,1
216,219,1,0.003,0.023,0.049,600.0,720.0,750.0,0,0,0,0,1,1,0,1,1
217,218,1,0.002,0.014,0.03,600.0,720.0,750.0,0,0,0,0,1,1,0,1,1
217,222,1,0.014,0.105,0.221,600.0,720.0,750.0,0,0,0,0,1,1,0,1,1
218,221,1,0.003,0.026,0.055,600.0,720.0,750.0,0,0,0,0,1,1,0,1,1
218,221,2,0.003,0.026,0.055,600.0,720.0,750.0,0,0,0,0,1,1,0,1,1
219,220,1,0.005,0.04,0.083,600.0,720.0,750.0,0,0,0,0,1,1,0,1,1
219,220,2,0.005,0.04,0.083,600.0,720.0,750.0,0,0,0,0,1,1,0,1,1
220,223,1,0.003,0.022,0.046,600.0,720.0,750.0,0,0,0,0,1,1,0,1,1
220,223,2,0.003,0.022,0.046,600.0,720.0,750.0,0,0,0,0,1,1,0,1,1
221,222,1,0.009,0.068,0.142,600.0,720.0,750.0,0,0,0,0,1,1,0,1,1
301,302,1,0.003,0.014,0.461,210.0,231.6,240.0,0,0,0,0,1,1,0,1,1
301,303,1,0.055,0.211,0.057,210.0,249.6,264.0,0,0,0,0,1,1,0,1,1
301,305,1,0.022,0.085,0.023,210.0,249.6,264.0,0,0,0,0,1,1,0,1,1
302,304,1,0.033,0.127,0.034,210.0,249.6,264.0,0,0,0,0,1,1,0,1,1
302,306,1,0.05,0.192,0.052,210.0,249.6,264.0,0,0,0,0,1,1,0,1,1
303,309,1,0.031,0.119,0.032,210.0,249.6,264.0,0,0,0,0,1,1,0,1,1
304,309,1,0.027,0.104,0.028,210.0,249.6,264.0,0,0,0,0,1,1,0,1,1
305,310,1,0.023,0.088,0.024,210.0,249.6,264.0,0,0,0,0,1,1,0,1,1
306,310,1,0.014,0.061,2.459,210.0,231.6,240.0,0,0,0,0,1,1,0,1,1
307,308,1,0.016,0.061,0.017,210.0,249.6,264.0,0,0,0,0,1,1,0,1,1
308,309,1,0.043,0.165,0.045,210.0,249.6,264.0,0,0,0,0,1,1,0,1,1
308,310,1,0.043,0.165,0.045,210.0,249.6,264.0,0,0,0,0,1,1,0,1,1
311,313,1,0.006,0.048,0.1,600.0,720.0,750.0,0,0,0,0,1,1,0,1,1
311,314,1,0.005,0.042,0.088,600.0,720.0,750.0,0,0,0,0,1,1,0,1,1
312,313,1,0.006,0.048,0.1,600.0,720.0,750.0,0,0,0,0,1,1,0,1,1
312,323,1,0.012,0.097,0.203,600.0,720.0,750.0,0,0,0,0,1,1,0,1,1
313,323,1,0.011,0.087,0.182,600.0,720.0,750.0,0,0,0,0,1,1,0,1,1
314,316,1,0.005,0.059,0.082,600.0,720.0,750.0,0,0,0,0,1,1,0,1,1
315,316,1,0.002,0.017,0.036,600.0,720.0,750.0,0,0,0,0,1,1,0,1,1
315,321,1,0.006,0.049,0.103,600.0,720.0,750.0,0,0,0,0,1,1,0,1,1
315,321,2,0.006,0.049,0.103,600.0,720.0,750.0,0,0,0,0,1,1,0,1,1
315,324,1,0.007,0.052,0.109,600.0,720.0,750.0,0,0,0,0,1,1,0,1,1
316,317,1,0.003,0.026,0.055,600.0,720.0,750.0,0,0,0,0,1,1,0,1,1
316,319,1,0.003,0.023,0.049,600.0,720.0,750.0,0,0,0,0,1,1,0,1,1
317,318,1,0.002,0.014,0.03,600.0,720.0,750.0,0,0,0,0,1,1,0,1,1
317,322,1,0.014,0.105,0.221,600.0,720.0,750.0,0,0,0,0,1,1,0,1,1
318,223,1,0.013,0.104,0.218,600.0,720.0,750.0,0,0,0,0,1,1,0,1,1
318,321,1,0.003,0.026,0.055,600.0,720.0,750.0,0,0,0,0,1,1,0,1,1
318,321,2,0.003,0.026,0.055,600.0,720.0,750.0,0,0,0,0,1,1,0,1,1
319,320,1,0.005,0.04,0.083,600.0,720.0,750.0,0,0,0,0,1,1,0,1,1
319,320,2,0.005,0.04,0.083,600.0,720.0,750.0,0,0,0,0,1,1,0,1,1
320,323,1,0.003,0.022,0.046,600.0,720.0,750.0,0,0,0,0,1,1,0,1,1
320,323,2,0.003,0.022,0.046,600.0,720.0,750.0,0,0,0,0,1,1,0,1,1
321,322,1,0.009,0.068,0.142,600.0,720.0,750.0,0,0,0,0,1,1,0,1,1
323,325,1,0,0.009,0,866.4,1071.6,1071.6,0,0,0,0,1,1,0,1,1
325,121,1,0.012,0.097,0.203,600.0,720.0,750.0,0,0,0,0,1,1,0,1,1
0 / END OF BRANCH DATA, BEGIN TRANSFORMER DATA
  103 ,  124 , 0,  1 , 1, 1, 1, 0, 0, 2, '            ',  1 , 1, 1
   0.002000 ,  0.084000 ,  100.000000
   1.015000 , 0,  0.000000 ,  400.000000 ,  510.000000 ,  600.000000 , 0, 0,  1.10 ,  0.90 ,  1.10 ,  0.90 , 33, 0, 0, 0
   1.000000, 0
  109 ,  111 , 0,  1 , 1, 1, 1, 0, 0, 2, '            ',  1 , 1, 1
   0.002000 ,  0.084000 ,  100.000000
   1.030000 , 0,  0.000000 ,  400.000000 ,  510.000000 ,  600.000000 , 0, 0,  1.10 ,  0.90 ,  1.10 ,  0.90 , 33, 0, 0, 0
   1.000000, 0
  109 ,  112 , 0,  1 , 1, 1, 1, 0, 0, 2, '            ',  1 , 1, 1
   0.002000 ,  0.084000 ,  100.000000
   1.030000 , 0,  0.000000 ,  400.000000 ,  510.000000 ,  600.000000 , 0, 0,  1.10 ,  0.90 ,  1.10 ,  0.90 , 33, 0, 0, 0
   1.000000, 0
  110 ,  111 , 0,  1 , 1, 1, 1, 0, 0, 2, '            ',  1 , 1, 1
   0.002000 ,  0.084000 ,  100.000000
   1.015000 , 0,  0.000000 ,  400.000000 ,  510.000000 ,  600.000000 , 0, 0,  1.10 ,  0.90 ,  1.10 ,  0.90 , 33, 0, 0, 0
   1.000000, 0
  110 ,  112 , 0,  1 , 1, 1, 1, 0, 0, 2, '            ',  1 , 1, 1
   0.002000 ,  0.084000 ,  100.000000
   1.015000 , 0,  0.000000 ,  400.000000 ,  510.000000 ,  600.000000 , 0, 0,  1.10 ,  0.90 ,  1.10 ,  0.90 , 33, 0, 0, 0
   1.000000, 0
  203 ,  224 , 0,  1 , 1, 1, 1, 0, 0, 2, '            ',  1 , 1, 1
   0.002000 ,  0.084000 ,  100.000000
   1.015000 , 0,  0.000000 ,  400.000000 ,  510.000000 ,  600.000000 , 0, 0,  1.10 ,  0.90 ,  1.10 ,  0.90 , 33, 0, 0, 0
   1.000000, 0
  209 ,  211 , 0,  1 , 1, 1, 1, 0, 0, 2, '            ',  1 , 1, 1
   0.002000 ,  0.084000 ,  100.000000
   1.030000 , 0,  0.000000 ,  400.000000 ,  510.000000 ,  600.000000 , 0, 0,  1.10 ,  0.90 ,  1.10 ,  0.90 , 33, 0, 0, 0
   1.000000, 0
  209 ,  212 , 0,  1 , 1, 1, 1, 0, 0, 2, '            ',  1 , 1, 1
   0.002000 ,  0.084000 ,  100.000000
   1.030000 , 0,  0.000000 ,  400.000000 ,  510.000000 ,  600.000000 , 0, 0,  1.10 ,  0.90 ,  1.10 ,  0.90 , 33, 0, 0, 0
   1.000000, 0
  210 ,  211 , 0,  1 , 1, 1, 1, 0, 0, 2, '            ',  1 , 1, 1
   0.002000 ,  0.084000 ,  100.000000
   1.015000 , 0,  0.000000 ,  400.000000 ,  510.000000 ,  600.000000 , 0, 0,  1.10 ,  0.90 ,  1.10 ,  0.90 , 33, 0, 0, 0
   1.000000, 0
  210 ,  212 , 0,  1 , 1, 1, 1, 0, 0, 2, '            ',  1 , 1, 1
   0.002000 ,  0.084000 ,  100.000000
   1.015000 , 0,  0.000000 ,  400.000000 ,  510.000000 ,  600.000000 , 0, 0,  1.10 ,  0.90 ,  1.10 ,  0.90 , 33, 0, 0, 0
   1.000000, 0
  303 ,  324 , 0,  1 , 1, 1, 1, 0, 0, 2, '            ',  1 , 1, 1
   0.002000 ,  0.084000 ,  100.000000
   1.015000 , 0,  0.000000 ,  400.000000 ,  510.000000 ,  600.000000 , 0, 0,  1.10 ,  0.90 ,  1.10 ,  0.90 , 33, 0, 0, 0
   1.000000, 0
  309 ,  311 , 0,  1 , 1, 1, 1, 0, 0, 2, '            ',  1 , 1, 1
   0.002000 ,  0.084000 ,  100.000000
   1.030000 , 0,  0.000000 ,  400.000000 ,  510.000000 ,  600.000000 , 0, 0,  1.10 ,  0.90 ,  1.10 ,  0.90 , 33, 0, 0, 0
   1.000000, 0
  309 ,  312 , 0,  1 , 1, 1, 1, 0, 0, 2, '            ',  1 , 1, 1
   0.002000 ,  0.084000 ,  100.000000
   1.030000 , 0,  0.000000 ,  400.000000 ,  510.000000 ,  600.000000 , 0, 0,  1.10 ,  0.90 ,  1.10 ,  0.90 , 33, 0, 0, 0
   1.000000, 0
  310 ,  311 , 0,  1 , 1, 1, 1, 0, 0, 2, '            ',  1 , 1, 1
   0.002000 ,  0.084000 ,  100.000000
   1.015000 , 0,  0.000000 ,  400.000000 ,  510.000000 ,  600.000000 , 0, 0,  1.10 ,  0.90 ,  1.10 ,  0.90 , 33, 0, 0, 0
   1.000000, 0
  310 ,  312 , 0,  1 , 1, 1, 1, 0, 0, 2, '            ',  1 , 1, 1
   0.002000 ,  0.084000 ,  100.000000
   1.015000 , 0,  0.000000 ,  400.000000 ,  510.000000 ,  600.000000 , 0, 0,  1.10 ,  0.90 ,  1.10 ,  0.90 , 33, 0, 0, 0
   1.000000, 0
0 / END OF TRANSFORMER DATA, BEGIN AREA DATA
0 / END OF AREA DATA, BEGIN TWO-TERMINAL DC DATA
0 / END OF TWO-TERMINAL DC DATA, BEGIN VSC DC LINE DATA
0 / END OF VSC DC LINE DATA, BEGIN SWITCHED SHUNT DATA
0 / END OF SWITCHED SHUNT DATA, BEGIN IMPEDANCE CORRECTION DATA
0 / END OF IMPEDANCE CORRECTION DATA, BEGIN MULTI-TERMINAL DC DATA
0 / END OF MULTI-TERMINAL DC DATA, BEGIN MULTI-SECTION LINE DATA
0 / END OF MULTI-SECTION LINE DATA, BEGIN ZONE DATA
0 / END OF ZONE DATA, BEGIN INTER-AREA TRANSFER DATA
0 / END OF INTER-AREA TRANSFER DATA, BEGIN OWNER DATA
0 / END OF OWNER DATA, BEGIN FACTS CONTROL DEVICE DATA
0 / END OF FACTS CONTROL DEVICE DATA
0 / END OF SWITCHED SHUNT DATA, BEGIN GNE DATA
0 / END OF GNE DATA, BEGIN INDUCTION MACHINE DATA
0 / END OF INDUCTION MACHINE DATA
Q 
